<?xml version="1.0" encoding="UTF-8"?>

<!-- generated on 07/15/21 20:39:38 by Eclipse SUMO netedit Version 1.8.0
<configuration xmlns:xsi="http://www.w3.org/2001/XMLSchema-instance" xsi:noNamespaceSchemaLocation="http://sumo.dlr.de/xsd/netconvertConfiguration.xsd">

    <output>
        <output-file value="C:\Users\roger\veins-5.1\examples\veins\test.net.xml"/>
    </output>

    <processing>
        <offset.disable-normalization value="true"/>
    </processing>

    <junctions>
        <no-turnarounds value="true"/>
    </junctions>

    <netedit>
        <additional-files value="C:\Users\roger\veins-5.1\examples\veins\test.add.xml"/>
    </netedit>

    <report>
        <aggregate-warnings value="5"/>
    </report>

</configuration>
-->

<routes>

    <vType id="vtype0" accel="2.6" decel="4.5" sigma="0.5" length="2.5" minGap="2.5" maxSpeed="14" color="1,1,0"/>

    <route id="route0" color="1,1,0" edges="E12 E23"/>

    <vehicle id="0" type="vtype0" route="route0" depart="0" color="1,0,0"/>
    <vehicle id="1" type="vtype0" route="route0" depart="1" color="1,0,0"/>

</routes>
