<?xml version="1.0" encoding="UTF-8"?>

<!-- generated on 07/15/21 20:39:38 by Eclipse SUMO netedit Version 1.8.0
<configuration xmlns:xsi="http://www.w3.org/2001/XMLSchema-instance" xsi:noNamespaceSchemaLocation="http://sumo.dlr.de/xsd/netconvertConfiguration.xsd">

    <output>
        <output-file value="C:\Users\roger\veins-5.1\examples\veins\test.net.xml"/>
    </output>

    <processing>
        <offset.disable-normalization value="true"/>
    </processing>

    <junctions>
        <no-turnarounds value="true"/>
    </junctions>

    <netedit>
        <additional-files value="C:\Users\roger\veins-5.1\examples\veins\test.add.xml"/>
    </netedit>

    <report>
        <aggregate-warnings value="5"/>
    </report>

</configuration>
-->

<additional xmlns:xsi="http://www.w3.org/2001/XMLSchema-instance" xsi:noNamespaceSchemaLocation="http://sumo.dlr.de/xsd/additional_file.xsd">
    <poly id="poly_0" color="red" fill="0" layer="128.00" shape="-20.000000,20.000000 120.000000,20.000000 120.000000,20.000000 -20.000000,20.000000 -20.000000,20.000000"/>
    <poly id="poly_1" color="red" fill="0" layer="128.00" shape="-20.000000,-20.000000 120.000000,-20.000000 120.000000,-20.000000 -20.000000,-20.000000 -20.000000,-20.000000"/>
</additional>
