<?xml version="1.0" encoding="UTF-8"?>

<!-- generated on 07/15/21 20:45:30 by Eclipse SUMO netedit Version 1.8.0
<configuration xmlns:xsi="http://www.w3.org/2001/XMLSchema-instance" xsi:noNamespaceSchemaLocation="http://sumo.dlr.de/xsd/netconvertConfiguration.xsd">

    <input>
        <sumo-net-file value="C:\Users\roger\veins-5.1\examples\veins\test.net.xml"/>
    </input>

    <output>
        <output-file value="C:\Users\roger\veins-5.1\examples\veins\test.net.xml"/>
    </output>

    <processing>
        <geometry.min-radius.fix.railways value="false"/>
        <geometry.max-grade.fix value="false"/>
        <offset.disable-normalization value="true"/>
        <lefthand value="false"/>
    </processing>

    <junctions>
        <no-turnarounds value="true"/>
        <junctions.corner-detail value="5"/>
        <junctions.limit-turn-speed value="5.5"/>
        <rectangular-lane-cut value="false"/>
    </junctions>

    <pedestrian>
        <walkingareas value="false"/>
    </pedestrian>

    <report>
        <aggregate-warnings value="5"/>
    </report>

</configuration>
-->

<net version="1.6" junctionCornerDetail="5" limitTurnSpeed="5.50" xmlns:xsi="http://www.w3.org/2001/XMLSchema-instance" xsi:noNamespaceSchemaLocation="http://sumo.dlr.de/xsd/net_file.xsd">

    <location netOffset="0.00,0.00" convBoundary="0.00,0.00,100.00,0.00" origBoundary="-10000000000.00,-10000000000.00,10000000000.00,10000000000.00" projParameter="!"/>

    <edge id=":N2_0" function="internal">
        <lane id=":N2_0_0" index="0" speed="13.89" length="0.10" shape="50.00,-1.60 50.00,-1.60"/>
    </edge>

    <edge id="E12" from="N1" to="N2" priority="-1">
        <lane id="E12_0" index="0" speed="13.89" length="50.00" shape="0.00,-1.60 50.00,-1.60"/>
    </edge>
    <edge id="E23" from="N2" to="N3" priority="-1">
        <lane id="E23_0" index="0" speed="13.89" length="50.00" shape="50.00,-1.60 100.00,-1.60"/>
    </edge>

    <junction id="N1" type="dead_end" x="0.00" y="0.00" incLanes="" intLanes="" shape="0.00,0.00 0.00,-3.20"/>
    <junction id="N2" type="priority" x="50.00" y="0.00" incLanes="E12_0" intLanes=":N2_0_0" shape="50.00,0.00 50.00,-3.20 50.00,0.00">
        <request index="0" response="0" foes="0" cont="0"/>
    </junction>
    <junction id="N3" type="dead_end" x="100.00" y="0.00" incLanes="E23_0" intLanes="" shape="100.00,-3.20 100.00,0.00"/>

    <connection from="E12" to="E23" fromLane="0" toLane="0" via=":N2_0_0" dir="s" state="M"/>

    <connection from=":N2_0" to="E23" fromLane="0" toLane="0" dir="s" state="M"/>

</net>
